herdess
haemorrhage
peacockism
undutiful
thermions
flaky
hautboyist
superpurity
kepped
cookies
meterstick
adamastor
oncin
pudgier
interplace
accismus
screenland
furnaces
straddler
ovigenous
gourinae
magicking
untwinable
thiotolene
sourdook
activeness
allopalladium
russety
sniveling
sowl
comfortress
empathetic
bedumbing
souffleing
steadiest
ohs
unmeasurable
urling
collectorate
scopic
overexpend
outfenced
preconfine
dreadfully
strepen
subtruncated
blockhouse
aphorised
savvies
apocentre
unacclimation
devolatilise
dogblow
vermigrade
feely
nonprofanity
wheelrace
homopter
liberating
seminivorous
izafat
amphichromy
sesterces
comer
flattering
dawdler
trainman
strent
semidiagrammatic
apostatizes
chondrosarcomatous
systems
exacerbate
epos
unbreaded
falcer
taich
cantonal
predissuaded
outdraw
subatmospheric
organophonic
phyllostomatinae
scientology
gasifier
unproportional
diagramming
nonfeverish
fremdly
sleekens
photosculptural
barhopping
inamorato
existently
hematosis
storehouse
pcf
entreated
cheatable
stewpan
