prosect
oosporange
chondroxiphoid
bishopship
echelons
ceric
bascology
debind
pervial
underbridged
hyalography
severely
wickets
splitters
hano
pluvine
nonvisitation
tintinnabulary
hippeastrum
oxygenizement
scantiest
acieral
compulsive
uniseriately
nestings
barnstormed
psychosynthetic
epicurean
hexoctahedron
judaically
dermaskeleton
ochotona
smaltz
attacks
yawl
forereckon
tahil
badgered
compacted
opisthognathism
barring
swanker
unsabotaged
impressively
portents
sisterize
liberatrix
unbiting
freehanded
sulfohalite
convulses
testimonializing
skier
thulr
geomancies
tissueless
undedicated
rivermen
spooned
perimartium
feudalize
bromometrically
confraternal
oneirologist
plutonian
shakil
nonequilateral
chiccory
dinah
methodizes
pcf
noncirculation
dingies
hoodshy
schemed
taxonomies
musalmani
charivan
handlers
barbettes
sabakha
trappingly
mishara
incavo
ectocranial
throughganging
provincialities
antinaturalness
intersert
untriableness
phorozooid
sextumvirate
zoogeologist
erythrons
arrastra
passalid
quarterns
disinfectant
hiemate
faxing
