tauten
hosiomartyr
chibchan
fireplaces
diota
wheatflakes
eximious
unshakableness
complemental
ascenders
sociometry
anacruses
coolly
amphithyra
strengthily
degradedness
vestries
syriologist
pseudoasymmetry
depositee
viagram
datil
proctodea
explicans
phenylthiourea
seraing
lithoclasty
mezuzas
trepanningly
coctoantigen
ratable
textorial
karate
pasteurian
telegram
rotch
abandoning
roaches
slimsy
neuropteron
scatterable
delaminating
malexecution
tapisserie
cardophagus
hydrocoral
ignited
queerest
tylosurus
tanystome
clowre
sapiencies
eleganter
martaban
cotwin
coruscate
unrequited
pathophoresis
backrest
oversupplied
beckoned
autographism
efoliolate
pcf
waff
cogswellia
duncical
prismatical
endemisms
trowelbeak
wineier
xina
hemicholinium
sootily
prese
noncontributive
pipewalker
wy
squamulate
cp
orodiagnosis
recruitee
olympianly
coorg
switzer
unyearning
saints
pyes
pregenerated
wimbrel
tachyphagia
importune
sparsim
emanational
wiggled
impinging
eupatorin
counterfoil
mennuet
dodecafid
