acarines
salaams
sesquialtera
spies
stallingken
divertibility
chanukah
buri
crednerite
scarpa
unpleasingly
hetairas
transfusionist
milliseconds
pcf
nonadjournment
sundries
crashingly
upbeat
oilcoat
machinability
tristetrahedron
benignity
proctodaea
unadmired
frederick
antitwilight
horseshoed
floripondio
planispherical
provostal
preimaginary
gawain
pestifugous
thyroidean
outshift
microzoaria
unseeing
inabstinence
demicritic
cumulonimbus
refectorian
habitative
unassociatively
lambeau
peroba
tracheids
grograms
indorsers
tinworks
pentarchical
bald
deaminase
enjambments
asterwort
presubscribed
cried
distinctest
besmirched
grapples
precoronation
intersomnious
agaristidae
witherwards
proselyted
occipitofrontal
accustomedness
equivoluminal
transvert
tomand
creolian
pseudogynous
ethnographic
predisadvantage
chaperone
pottern
autosoterism
untruly
occasionings
ruffiano
suberins
filthiest
absinthol
hdkf
unsagging
chiliarch
frisch
exudatory
overbids
transmitting
patriotic
superworldliness
evasional
metra
arguta
katalyses
evocators
amplificatory
buffalofish
pelidnota
