dissilient
soaplike
dumosity
homogeneously
waygoing
rancorousness
vaqueros
didrachm
yearnfulness
koilon
jealously
aboardage
actinic
tended
bigener
barbule
reiteration
prototraitor
peperomia
magh
uncancellable
toko
shellacs
rubbisy
jessed
colostomy
counterbase
incorporatedness
joyfuller
weavement
pcf
palmin
bonelessly
lignography
straining
perorational
demilawyer
ballmine
bloodguiltless
unassibilated
splatch
devaporate
anthophore
deino
excorticated
trimetrogon
aphydrotropic
nonasthmatically
wonning
gueridon
anerethisia
remancipate
scrods
taverns
fish
earnings
gonadic
unstreng
anomalocephalus
amphivorous
storylines
eigh
vaccines
semideify
indults
unassembled
disambiguates
attractingly
blowtorch
uncountrified
unvagrantness
clinanthium
microeutaxitic
cisterns
hydrobiology
tinclad
alidads
leaflets
cummins
seroot
bleareye
outblotting
impactor
casteless
avulse
semidomes
sauceline
doorjambs
warray
kleptomaniac
regulative
shrewstruck
bushgoats
noncoalescence
scorbuch
tzigane
ithyphallic
hake
ibsenish
verbomania
