rhabdoidal
ism
diestrus
enfrenzy
octant
chlorophenol
semiminess
shinily
afterglows
demissionary
ungues
supercicilia
pcf
journeyers
paroemia
urethrostenosis
underbarber
dabchick
bumtrap
siliquiform
anticombination
natatorial
beshear
unclimbably
lithologist
leegatioen
translatress
unfishing
clencher
pamphlets
ceruloplasmin
repeatedly
putamina
preexpand
ladderway
overpunishment
eleventeenth
frontcourt
sigillographer
cartelistic
cheaping
delilah
pitiedness
kicktail
triradiuses
asservilize
plebe
inbetweener
impermixt
reinforces
snaggy
spongiopilin
runabouts
gumboils
olenid
galega
unbone
helpingly
hierogamy
redismissal
widowery
fusels
subtotem
hysterogenic
springtail
cure
bellon
deletery
miocene
nakhlite
ancient
persuadable
irrelativeness
convention
acousticon
onuses
skulk
gammation
venations
germ
avertiment
sincere
faradisation
champing
ensiles
paramecium
equiomnipotent
commodiously
asthmogenic
provincialization
ladybirds
getatable
fumigatory
janice
dressier
pornograph
offend
precomplicated
glories
triacontaeterid
